data_image0
_chemical_formula_structural       Li2Zn2Sb2
_chemical_formula_sum              "Li2 Zn2 Sb2"
_cell_length_a       4.46481
_cell_length_b       4.46481
_cell_length_c       7.23805
_cell_angle_alpha    90
_cell_angle_beta     90
_cell_angle_gamma    120

_space_group_name_H-M_alt    "P 1"
_space_group_IT_number       1

loop_
  _space_group_symop_operation_xyz
  'x, y, z'

loop_
  _atom_site_type_symbol
  _atom_site_label
  _atom_site_symmetry_multiplicity
  _atom_site_fract_x
  _atom_site_fract_y
  _atom_site_fract_z
  _atom_site_occupancy
  Li  Li1       1.0  0.00000  0.00000  0.17461  1.0000
  Li  Li2       1.0  0.00000  0.00000  0.67461  1.0000
  Zn  Zn1       1.0  0.66667  0.33333  0.51189  1.0000
  Zn  Zn2       1.0  0.33333  0.66667  0.01189  1.0000
  Sb  Sb1       1.0  0.33333  0.66667  0.39451  1.0000
  Sb  Sb2       1.0  0.66667  0.33333  0.89451  1.0000
